Version 4
SHEET 1 1380 752
WIRE 160 -96 96 -96
WIRE 256 -80 224 -80
WIRE 320 -80 256 -80
WIRE 416 -80 400 -80
WIRE 432 -80 416 -80
WIRE 544 -80 512 -80
WIRE 160 -64 -16 -64
WIRE 96 16 96 -96
WIRE 256 16 256 0
WIRE 256 16 96 16
WIRE 256 32 256 16
WIRE -16 48 -16 -64
WIRE 416 48 416 -80
WIRE 448 48 416 48
WIRE 544 64 544 -80
WIRE 544 64 512 64
WIRE 592 64 544 64
WIRE 448 80 416 80
WIRE 256 128 256 112
WIRE 256 128 144 128
WIRE 256 160 256 128
WIRE 144 224 144 128
WIRE 160 224 144 224
WIRE 256 240 224 240
WIRE 320 240 256 240
WIRE 416 240 416 80
WIRE 416 240 400 240
WIRE 432 240 416 240
WIRE 544 240 512 240
WIRE -16 256 -16 128
WIRE 160 256 -16 256
WIRE 1232 272 1056 272
WIRE 992 384 992 368
WIRE 1056 400 1056 272
WIRE 1072 400 1056 400
WIRE 1232 416 1232 272
WIRE 1232 416 1136 416
WIRE 1072 432 1056 432
WIRE 992 480 992 464
WIRE 1056 480 1056 432
WIRE 1056 480 992 480
WIRE 32 560 32 512
WIRE 128 560 128 512
WIRE 32 672 32 640
WIRE 80 672 32 672
WIRE 112 672 80 672
WIRE 128 672 128 640
WIRE 128 672 112 672
FLAG 32 512 Vpos
FLAG 128 512 Vneg
FLAG 80 672 Vgnd
FLAG 192 -112 Vpos
FLAG 480 32 Vpos
FLAG 192 208 Vpos
FLAG 192 -48 Vneg
FLAG 480 96 Vneg
FLAG 192 272 Vneg
FLAG 592 64 Vamp
FLAG 544 240 Vgnd
FLAG 112 672 0
FLAG 1104 384 Vpos
FLAG 1104 448 Vneg
FLAG 992 368 0
SYMBOL voltage 32 544 R0
WINDOW 123 0 0 Left 0
WINDOW 39 0 0 Left 0
SYMATTR InstName V1
SYMATTR Value 10
SYMBOL voltage 128 544 R0
WINDOW 123 0 0 Left 0
WINDOW 39 0 0 Left 0
SYMATTR InstName V2
SYMATTR Value -10
SYMBOL res 240 144 R0
SYMATTR InstName R1
SYMATTR Value 1k
SYMBOL res 240 16 R0
SYMATTR InstName R2
SYMATTR Value 2k
SYMBOL res 240 -96 R0
SYMATTR InstName R3
SYMATTR Value 1k
SYMBOL res 416 -96 R90
WINDOW 0 0 56 VBottom 2
WINDOW 3 32 56 VTop 2
SYMATTR InstName R4
SYMATTR Value 1k
SYMBOL res 416 224 R90
WINDOW 0 0 56 VBottom 2
WINDOW 3 32 56 VTop 2
SYMATTR InstName R5
SYMATTR Value 1k
SYMBOL res 528 -96 R90
WINDOW 0 0 56 VBottom 2
WINDOW 3 32 56 VTop 2
SYMATTR InstName R6
SYMATTR Value 1k
SYMBOL res 528 224 R90
WINDOW 0 0 56 VBottom 2
WINDOW 3 32 56 VTop 2
SYMATTR InstName R7
SYMATTR Value 1k
SYMBOL voltage -16 32 R0
WINDOW 123 24 124 Left 2
WINDOW 39 0 0 Left 0
SYMATTR Value2 AC 0
SYMATTR InstName V3
SYMATTR Value -1
SYMBOL Opamps\\UniversalOpamp2 1104 416 R0
SYMATTR InstName U4
SYMATTR Value2 Avol=31.6228k GBW=3900Meg Slew=950Meg
SYMBOL voltage 992 480 R180
WINDOW 0 24 96 Left 2
WINDOW 3 24 -40 Left 2
WINDOW 123 24 -12 Left 2
WINDOW 39 0 0 Left 0
SYMATTR InstName V4
SYMATTR Value 1
SYMATTR Value2 AC 0
SYMBOL Opamps\\UniversalOpamp2 192 -80 R0
SYMATTR InstName U1
SYMATTR Value2 Avol=31.6228k GBW=3900Meg Slew=950Meg
SYMBOL Opamps\\UniversalOpamp2 480 64 R0
SYMATTR InstName U2
SYMATTR Value2 Avol=31.6228k GBW=3900Meg Slew=950Meg
SYMBOL Opamps\\UniversalOpamp2 192 240 R0
SYMATTR InstName U3
SYMATTR Value2 Avol=31.6228k GBW=3900Meg Slew=950Meg
TEXT -48 720 Left 2 !.tran 10e-3
TEXT -48 736 Left 2 !;ac dec 10e-6 1 4e9
