Version 4
SHEET 1 1396 740
WIRE -688 -464 -1056 -464
WIRE -496 -464 -608 -464
WIRE 64 -464 -496 -464
WIRE -496 -304 -496 -464
WIRE 64 -304 64 -464
WIRE -432 -272 -448 -272
WIRE 128 -272 112 -272
WIRE -432 -240 -432 -272
WIRE -432 -240 -448 -240
WIRE 128 -240 128 -272
WIRE 128 -240 112 -240
WIRE -864 -224 -880 -224
WIRE -768 -224 -784 -224
WIRE -720 -224 -768 -224
WIRE -576 -224 -640 -224
WIRE -560 -224 -576 -224
WIRE -288 -224 -320 -224
WIRE -160 -224 -208 -224
WIRE -16 -224 -80 -224
WIRE 0 -224 -16 -224
WIRE -1056 -192 -1056 -464
WIRE -768 -160 -768 -224
WIRE -752 -160 -768 -160
WIRE -672 -160 -688 -160
WIRE -576 -160 -576 -224
WIRE -576 -160 -592 -160
WIRE -208 -160 -208 -224
WIRE -192 -160 -208 -160
WIRE -112 -160 -128 -160
WIRE -16 -160 -16 -224
WIRE -16 -160 -32 -160
WIRE 16 -144 16 -192
WIRE -1040 -112 -1056 -112
WIRE -544 -112 -544 -192
WIRE -496 -32 -496 -208
WIRE 64 -32 64 -208
WIRE 64 -32 -496 -32
WIRE 80 -32 64 -32
WIRE 496 -32 80 -32
WIRE -496 112 -496 -32
WIRE -432 144 -448 144
WIRE 80 160 80 -32
WIRE -432 176 -432 144
WIRE -432 176 -448 176
WIRE 496 176 496 -32
WIRE -848 192 -880 192
WIRE -720 192 -768 192
WIRE -560 192 -640 192
WIRE 144 192 128 192
WIRE 144 224 144 192
WIRE 144 224 128 224
WIRE -288 240 -336 240
WIRE -192 240 -208 240
WIRE -144 240 -192 240
WIRE 0 240 -64 240
WIRE 16 240 0 240
WIRE -720 272 -720 192
WIRE -640 272 -656 272
WIRE -560 272 -560 192
WIRE -192 304 -192 240
WIRE -176 304 -192 304
WIRE -96 304 -112 304
WIRE 0 304 0 240
WIRE 0 304 -16 304
WIRE -544 320 -544 224
WIRE 32 336 32 272
WIRE -1040 688 -1040 -112
WIRE -496 688 -496 208
WIRE -496 688 -1040 688
WIRE 80 688 80 256
WIRE 80 688 -496 688
WIRE 496 688 496 256
WIRE 496 688 80 688
WIRE -496 720 -496 688
FLAG -496 720 0
FLAG -1840 -272 PGDH
FLAG -880 -224 PGDH
FLAG -320 -224 PGDH
FLAG -1840 -192 NGDH
FLAG -544 -112 NGDH
FLAG 16 -144 NGDH
FLAG -1840 -32 PGDL
FLAG -880 192 PGDL
FLAG -1840 48 NGDL
FLAG -544 320 NGDL
FLAG -336 240 PGDL
FLAG 32 336 NGDL
SYMBOL voltage -1056 -208 R0
WINDOW 123 0 0 Left 0
WINDOW 39 0 0 Left 0
SYMATTR InstName V1
SYMATTR Value 270
SYMBOL res -624 -240 R90
WINDOW 0 0 56 VBottom 2
WINDOW 3 32 56 VTop 2
SYMATTR InstName R1
SYMATTR Value 10
SYMBOL res -624 176 R90
WINDOW 0 0 56 VBottom 2
WINDOW 3 32 56 VTop 2
SYMATTR InstName R2
SYMATTR Value 10
SYMBOL ind -768 -240 R90
WINDOW 0 5 56 VBottom 2
WINDOW 3 32 56 VTop 2
SYMATTR InstName L1
SYMATTR Value 2e-9
SYMBOL ind -752 176 R90
WINDOW 0 5 56 VBottom 2
WINDOW 3 32 56 VTop 2
SYMATTR InstName L2
SYMATTR Value 2e-9
SYMBOL voltage -1840 -288 R0
WINDOW 123 0 0 Left 0
WINDOW 39 0 0 Left 0
SYMATTR InstName V2
SYMATTR Value PULSE(6 -3 10000e-9 1e-9 1e-9 9900e-9 20000e-9)
SYMBOL voltage -1840 -48 R0
WINDOW 123 0 0 Left 0
WINDOW 39 0 0 Left 0
SYMATTR InstName V3
SYMATTR Value PULSE(-3 6 10000e-9 1e-9 1e-9 9900e-9 20000e-9)
SYMBOL res -576 -176 R90
WINDOW 0 0 56 VBottom 2
WINDOW 3 32 56 VTop 2
SYMATTR InstName R3
SYMATTR Value 2
SYMBOL diode -688 -176 R90
WINDOW 0 0 32 VBottom 2
WINDOW 3 32 32 VTop 2
SYMATTR InstName D1
SYMBOL diode -656 256 R90
WINDOW 0 0 32 VBottom 2
WINDOW 3 32 32 VTop 2
SYMATTR InstName D2
SYMBOL res -544 256 R90
WINDOW 0 0 56 VBottom 2
WINDOW 3 32 56 VTop 2
SYMATTR InstName R4
SYMATTR Value 2
SYMBOL ind -704 -448 R270
WINDOW 0 32 56 VTop 2
WINDOW 3 5 56 VBottom 2
SYMATTR InstName L3
SYMATTR Value 18e-9
SYMBOL current 496 176 R0
WINDOW 123 0 0 Left 0
WINDOW 39 0 0 Left 0
SYMATTR InstName I1
SYMATTR Value 20
SYMBOL GaN_E-HEMT_LT_GS66508B_L3V2 -544 -256 R0
WINDOW 3 -50 -61 Center 2
SYMATTR InstName U1
SYMBOL GaN_E-HEMT_LT_GS66508B_L3V2 -544 160 R0
WINDOW 3 -45 -67 Center 2
SYMATTR InstName U2
SYMBOL GaN_E-HEMT_LT_GS66508B_L3V2 16 -256 R0
WINDOW 3 211 -1 Center 2
SYMATTR InstName U3
SYMBOL GaN_E-HEMT_LT_GS66508B_L3V2 32 208 R0
WINDOW 3 207 1 Center 2
SYMATTR InstName U4
SYMBOL res -64 -240 R90
WINDOW 0 0 56 VBottom 2
WINDOW 3 32 56 VTop 2
SYMATTR InstName R5
SYMATTR Value 10
SYMBOL res -16 -176 R90
WINDOW 0 0 56 VBottom 2
WINDOW 3 32 56 VTop 2
SYMATTR InstName R6
SYMATTR Value 2
SYMBOL diode -128 -176 R90
WINDOW 0 0 32 VBottom 2
WINDOW 3 32 32 VTop 2
SYMATTR InstName D3
SYMBOL ind -304 -208 R270
WINDOW 0 32 56 VTop 2
WINDOW 3 5 56 VBottom 2
SYMATTR InstName L4
SYMATTR Value 3e-9
SYMBOL res -48 224 R90
WINDOW 0 0 56 VBottom 2
WINDOW 3 32 56 VTop 2
SYMATTR InstName R7
SYMATTR Value 10
SYMBOL res 0 288 R90
WINDOW 0 0 56 VBottom 2
WINDOW 3 32 56 VTop 2
SYMATTR InstName R8
SYMATTR Value 2
SYMBOL diode -112 288 R90
WINDOW 0 0 32 VBottom 2
WINDOW 3 32 32 VTop 2
SYMATTR InstName D4
SYMBOL ind -304 256 R270
WINDOW 0 32 56 VTop 2
WINDOW 3 5 56 VBottom 2
SYMATTR InstName L5
SYMATTR Value 3e-9
TEXT -1088 424 Left 2 !.tran 50e-6
TEXT -1080 400 Left 2 !.option temp=125
TEXT -1088 448 Left 2 !;ac dec 5 1 5000e6
