Version 4
SHEET 1 2436 1184
WIRE -288 -160 -352 -160
WIRE -32 -160 -208 -160
WIRE 112 -160 -32 -160
WIRE 208 -160 192 -160
WIRE -32 -80 -32 -160
WIRE 1216 -32 1216 -80
WIRE 1312 -32 1312 -80
WIRE 1216 80 1216 48
WIRE 1264 80 1216 80
WIRE 1312 80 1312 48
WIRE 1312 80 1264 80
WIRE -352 112 -352 -160
WIRE 1536 144 1312 144
WIRE 1664 144 1616 144
WIRE 1696 144 1664 144
WIRE 1904 144 1776 144
WIRE -336 192 -352 192
WIRE 1312 224 1312 144
WIRE 1312 224 1280 224
WIRE 1360 224 1312 224
WIRE 1504 224 1440 224
WIRE 1408 320 1360 320
WIRE 1808 352 1728 352
WIRE 1312 368 1312 224
WIRE 1328 368 1312 368
WIRE 1360 368 1344 368
WIRE 1408 368 1408 320
WIRE 1328 384 1328 368
WIRE 1344 384 1344 368
WIRE 1344 384 1328 384
WIRE 1360 384 1360 368
WIRE 1376 384 1360 384
WIRE 1504 400 1504 224
WIRE 1504 400 1440 400
WIRE 1536 400 1504 400
WIRE 1664 400 1664 144
WIRE 1664 400 1616 400
WIRE 1696 400 1664 400
WIRE 1744 400 1728 400
WIRE 1808 400 1808 352
WIRE 208 416 208 -160
WIRE 1344 416 1328 416
WIRE 1376 416 1360 416
WIRE 1696 416 1696 400
WIRE 1728 416 1728 400
WIRE 1728 416 1696 416
WIRE 1744 416 1744 400
WIRE 1776 416 1744 416
WIRE -32 432 -272 432
WIRE 1328 432 1328 416
WIRE 1328 432 1248 432
WIRE 1344 432 1344 416
WIRE 1360 432 1360 416
WIRE 1360 432 1344 432
WIRE 1904 432 1904 144
WIRE 1904 432 1840 432
WIRE 1968 432 1904 432
WIRE 2032 432 1968 432
WIRE 304 448 256 448
WIRE 1728 448 1696 448
WIRE 1776 448 1744 448
WIRE 1968 448 1968 432
WIRE 1696 464 1696 448
WIRE 1696 464 1616 464
WIRE 1728 464 1728 448
WIRE 1744 464 1744 448
WIRE 1744 464 1728 464
WIRE 304 480 256 480
WIRE 432 480 384 480
WIRE 1408 480 1408 432
WIRE 1408 480 1360 480
WIRE -144 496 -176 496
WIRE -32 496 -32 432
WIRE -32 496 -64 496
WIRE -16 496 -32 496
WIRE 144 496 64 496
WIRE 512 496 512 480
WIRE 1808 512 1808 464
WIRE 1808 512 1728 512
WIRE 1984 512 1968 512
WIRE 2032 512 1984 512
WIRE 1984 528 1984 512
WIRE 1984 528 1904 528
WIRE -544 560 -624 560
WIRE -416 560 -480 560
WIRE -320 560 -416 560
WIRE -272 560 -272 432
WIRE 208 560 208 512
WIRE 256 560 208 560
WIRE -320 576 -320 560
WIRE -16 576 -16 496
WIRE 64 576 48 576
WIRE 144 576 144 496
WIRE 256 576 256 560
WIRE 368 576 256 576
WIRE 432 576 368 576
WIRE -176 592 -176 496
WIRE 208 592 208 560
WIRE -416 624 -592 624
WIRE -320 624 -416 624
WIRE 368 624 368 576
WIRE 1584 656 1584 640
WIRE 1584 656 1568 656
WIRE 1600 656 1584 656
WIRE -272 672 -272 640
WIRE -176 672 -272 672
WIRE 160 672 160 528
WIRE 160 672 -176 672
WIRE 1568 672 1568 656
WIRE 1584 672 1584 656
WIRE 1600 672 1600 656
WIRE 1680 704 1680 688
WIRE 1680 704 1616 704
WIRE 1536 736 1440 736
WIRE 1680 736 1616 736
WIRE 208 752 208 672
WIRE 1680 752 1680 736
WIRE 1584 784 1584 768
WIRE 368 816 368 688
WIRE 432 816 368 816
WIRE 1680 848 1680 832
WIRE 368 912 368 816
WIRE -336 992 -336 192
WIRE 208 992 208 832
WIRE 208 992 -336 992
WIRE 208 1072 208 992
WIRE 368 1072 368 992
WIRE 368 1072 208 1072
WIRE 608 1072 368 1072
WIRE 208 1104 208 1072
FLAG 208 1104 0
FLAG 1216 -80 Vpos
FLAG 1312 -80 Vneg
FLAG 1264 80 Vgnd
FLAG -176 672 Vgnd
FLAG 432 576 Vcp
FLAG 432 816 Vcn
FLAG 1616 464 Vcp
FLAG 1248 432 Vcn
FLAG 1360 320 Vpos
FLAG 1728 352 Vpos
FLAG 1360 480 Vneg
FLAG 1728 512 Vneg
FLAG 1200 224 Vgnd
FLAG 1904 432 Vamp
FLAG 1904 528 Vgnd
FLAG 304 448 JunctionTop
FLAG 512 496 0
FLAG 1680 688 Vamp
FLAG 1680 848 Vgnd
FLAG 1584 640 Vgnd
FLAG 1584 784 Vpos
FLAG 1440 736 Vcomp
FLAG -624 560 Vcomp
FLAG -592 624 Vgnd
FLAG -32 -16 0
SYMBOL voltage -352 96 R0
WINDOW 123 0 0 Left 0
WINDOW 39 0 0 Left 0
SYMATTR InstName V1
SYMATTR Value 270
SYMBOL res 80 480 R90
WINDOW 0 0 56 VBottom 2
WINDOW 3 32 56 VTop 2
SYMATTR InstName R2
SYMATTR Value 10
SYMBOL ind -48 480 R90
WINDOW 0 5 56 VBottom 2
WINDOW 3 32 56 VTop 2
SYMATTR InstName L2
SYMATTR Value 2e-9
SYMBOL voltage -176 576 R0
WINDOW 123 0 0 Left 0
WINDOW 39 0 0 Left 0
SYMATTR InstName V3
SYMATTR Value PULSE(-3 6 100e-9 1e-9 1e-9 500e-9 20000e-9)
SYMBOL ind 192 576 R0
SYMATTR InstName Lparasitic
SYMATTR Value 0.84nH
SYMATTR SpiceLine Rser=0
SYMBOL diode 48 560 R90
WINDOW 0 0 32 VBottom 2
WINDOW 3 32 32 VTop 2
SYMATTR InstName D2
SYMBOL res 160 560 R90
WINDOW 0 0 56 VBottom 2
WINDOW 3 32 56 VTop 2
SYMATTR InstName R5
SYMATTR Value 2
SYMBOL ind -304 -144 R270
WINDOW 0 32 56 VTop 2
WINDOW 3 5 56 VBottom 2
SYMATTR InstName L4
SYMATTR Value 200e-9
SYMBOL res 192 736 R0
SYMATTR InstName R8
SYMATTR Value 1.7e-3
SYMBOL cap 352 624 R0
SYMATTR InstName C3
SYMATTR Value 200e-12
SYMBOL voltage 1216 -48 R0
WINDOW 123 0 0 Left 0
WINDOW 39 0 0 Left 0
SYMATTR InstName V4
SYMATTR Value 5
SYMBOL voltage 1312 -48 R0
WINDOW 123 0 0 Left 0
WINDOW 39 0 0 Left 0
SYMATTR InstName V5
SYMATTR Value -5
SYMBOL res 1632 384 R90
WINDOW 0 0 56 VBottom 2
WINDOW 3 32 56 VTop 2
SYMATTR InstName R3
SYMATTR Value 10k
SYMBOL res 1456 208 R90
WINDOW 0 0 56 VBottom 2
WINDOW 3 32 56 VTop 2
SYMATTR InstName R6
SYMATTR Value 10k
SYMBOL res 1296 208 R90
WINDOW 0 0 56 VBottom 2
WINDOW 3 32 56 VTop 2
SYMATTR InstName R7
SYMATTR Value 10k
SYMBOL res 1632 128 R90
WINDOW 0 0 56 VBottom 2
WINDOW 3 32 56 VTop 2
SYMATTR InstName R10
SYMATTR Value 2.43k
SYMBOL res 1792 128 R90
WINDOW 0 0 56 VBottom 2
WINDOW 3 32 56 VTop 2
SYMATTR InstName R11
SYMATTR Value 20k
SYMBOL res 352 896 R0
SYMATTR InstName R9
SYMATTR Value 2.21k
SYMBOL GaN_E-HEMT_LT_GS66508B_L3V2 160 464 R0
SYMATTR InstName U1
SYMBOL voltage 416 480 R270
WINDOW 0 32 56 VTop 2
WINDOW 3 -32 56 VBottom 2
WINDOW 123 0 0 Left 0
WINDOW 39 0 0 Left 0
SYMATTR InstName V2
SYMATTR Value 25
SYMBOL res 400 464 R90
WINDOW 0 0 56 VBottom 2
WINDOW 3 32 56 VTop 2
SYMATTR InstName R1
SYMATTR Value 0
SYMBOL Comparators\\LT1714 1584 720 R180
SYMATTR InstName U2
SYMBOL voltage 1680 736 R0
WINDOW 123 0 0 Left 0
WINDOW 39 0 0 Left 0
SYMATTR InstName V6
SYMATTR Value 1.2
SYMBOL sw -272 656 M180
SYMATTR InstName S1
SYMATTR Value MYSW
SYMBOL cap -432 560 R0
SYMATTR InstName C1
SYMATTR Value 100p
SYMBOL diode -544 576 R270
WINDOW 0 32 32 VTop 2
WINDOW 3 0 32 VBottom 2
SYMATTR InstName D1
SYMBOL res 2016 416 R0
SYMATTR InstName R4
SYMATTR Value 1k
SYMBOL ind 96 -144 R270
WINDOW 0 32 56 VTop 2
WINDOW 3 5 56 VBottom 2
SYMATTR InstName L1
SYMATTR Value 20e-9
SYMBOL cap -48 -80 R0
SYMATTR InstName C4
SYMATTR Value 1µ
SYMATTR SpiceLine IC = 270
SYMBOL Opamps\\LT1813 1408 336 R0
SYMATTR InstName U5
SYMBOL Opamps\\LT1813 1808 368 R0
SYMATTR InstName U3
TEXT -384 728 Left 2 !.tran 1e-6
TEXT -376 704 Left 2 !.option temp=25
TEXT -384 752 Left 2 !;ac dec 5 1 5000e6
TEXT 512 -88 Left 2 ;For 155.5 x 155.5 mil trace (Source Pin Dimension)\n2 oz/ft^2 thickness\n \n25C - 0.243 mohm\n50C - 0.267 mohm\n75C - 0.29 mohm\n100C - 0.314 mohm\n125C - 0.338 mohm\n150C - 0.361 mohm\nL = 1.108404 nH
TEXT -432 1088 Left 2 !.param Rntc=10k*exp(B*(1/(temp + 273.5 )+1/(273.5+25)))
TEXT -432 1064 Left 2 !.param B = 3380
TEXT -976 488 Left 2 !.model MYSW SW(Ron=1m Roff=1Meg Vt=.5 Vh=-.4)
