Version 4
SHEET 1 1568 1044
WIRE 16 -160 -352 -160
WIRE 208 -160 96 -160
WIRE 208 0 208 -160
WIRE -160 80 -176 80
WIRE -64 80 -80 80
WIRE -16 80 -64 80
WIRE 128 80 64 80
WIRE 144 80 128 80
WIRE -352 112 -352 -160
WIRE -176 128 -176 80
WIRE -64 144 -64 80
WIRE -48 144 -64 144
WIRE 32 144 16 144
WIRE 128 144 128 80
WIRE 128 144 112 144
WIRE -336 192 -352 192
WIRE -176 224 -176 208
WIRE 160 224 160 112
WIRE 160 224 -176 224
WIRE 1040 224 976 224
WIRE 1136 240 1104 240
WIRE 1200 240 1136 240
WIRE 1296 240 1280 240
WIRE 1312 240 1296 240
WIRE 1424 240 1392 240
WIRE 1040 256 864 256
WIRE 208 272 208 96
WIRE 608 272 208 272
WIRE 976 336 976 224
WIRE 1136 336 1136 320
WIRE 1136 336 976 336
WIRE 1136 352 1136 336
WIRE 1296 368 1296 240
WIRE 1328 368 1296 368
WIRE 1424 384 1424 240
WIRE 1424 384 1392 384
WIRE 1472 384 1424 384
WIRE 1328 400 1296 400
WIRE 208 416 208 272
WIRE 1136 448 1136 432
WIRE 1136 448 1024 448
WIRE 608 464 608 272
WIRE 1136 480 1136 448
WIRE -144 496 -176 496
WIRE -16 496 -64 496
WIRE 144 496 64 496
WIRE 1024 544 1024 448
WIRE 1040 544 1024 544
WIRE -176 560 -176 496
WIRE 208 560 208 512
WIRE 256 560 208 560
WIRE 1136 560 1104 560
WIRE 1200 560 1136 560
WIRE 1296 560 1296 400
WIRE 1296 560 1280 560
WIRE 1312 560 1296 560
WIRE 1424 560 1392 560
WIRE -16 576 -16 496
WIRE 64 576 48 576
WIRE 144 576 144 496
WIRE 256 576 256 560
WIRE 368 576 256 576
WIRE 432 576 368 576
WIRE 1040 576 864 576
WIRE 208 592 208 560
WIRE 368 624 368 576
WIRE -176 672 -176 640
WIRE 160 672 160 528
WIRE 160 672 -176 672
WIRE 368 720 368 688
WIRE 432 720 368 720
WIRE 208 752 208 672
WIRE 368 784 368 720
WIRE 912 880 912 832
WIRE 1008 880 1008 832
WIRE -336 992 -336 192
WIRE 208 992 208 832
WIRE 208 992 -336 992
WIRE 368 992 368 864
WIRE 368 992 208 992
WIRE 608 992 608 544
WIRE 608 992 368 992
WIRE 912 992 912 960
WIRE 960 992 912 992
WIRE 1008 992 1008 960
WIRE 1008 992 960 992
WIRE 208 1024 208 992
FLAG 208 1024 0
FLAG 432 576 Vcn
FLAG 432 720 Vcp
FLAG 912 832 Vpos
FLAG 1008 832 Vneg
FLAG 960 992 Vgnd
FLAG 1072 208 Vpos
FLAG 1360 352 Vpos
FLAG 1072 528 Vpos
FLAG 1072 272 Vneg
FLAG 1360 416 Vneg
FLAG 1072 592 Vneg
FLAG 1472 384 Vamp
FLAG 1424 560 Vgnd
FLAG 864 576 Vcp
FLAG 864 256 Vcn
FLAG -176 672 Vgnd
SYMBOL voltage -352 96 R0
WINDOW 123 0 0 Left 0
WINDOW 39 0 0 Left 0
SYMATTR InstName V1
SYMATTR Value 270
SYMBOL res 80 64 R90
WINDOW 0 0 56 VBottom 2
WINDOW 3 32 56 VTop 2
SYMATTR InstName R1
SYMATTR Value 10
SYMBOL res 80 480 R90
WINDOW 0 0 56 VBottom 2
WINDOW 3 32 56 VTop 2
SYMATTR InstName R2
SYMATTR Value 10
SYMBOL ind -64 64 R90
WINDOW 0 5 56 VBottom 2
WINDOW 3 32 56 VTop 2
SYMATTR InstName L1
SYMATTR Value 2e-9
SYMBOL ind -48 480 R90
WINDOW 0 5 56 VBottom 2
WINDOW 3 32 56 VTop 2
SYMATTR InstName L2
SYMATTR Value 2e-9
SYMBOL voltage -176 112 R0
WINDOW 123 0 0 Left 0
WINDOW 39 0 0 Left 0
SYMATTR InstName V2
SYMATTR Value PULSE(6 -3 10000e-9 1e-9 1e-9 9900e-9 20000e-9)
SYMBOL voltage -176 544 R0
WINDOW 123 0 0 Left 0
WINDOW 39 0 0 Left 0
SYMATTR InstName V3
SYMATTR Value PULSE(-3 6 10000e-9 1e-9 1e-9 9900e-9 20000e-9)
SYMBOL ind 192 576 R0
SYMATTR InstName Lparasitic
SYMATTR Value 1.11e-9
SYMBOL res 128 128 R90
WINDOW 0 0 56 VBottom 2
WINDOW 3 32 56 VTop 2
SYMATTR InstName R4
SYMATTR Value 2
SYMBOL diode 16 128 R90
WINDOW 0 0 32 VBottom 2
WINDOW 3 32 32 VTop 2
SYMATTR InstName D1
SYMBOL diode 48 560 R90
WINDOW 0 0 32 VBottom 2
WINDOW 3 32 32 VTop 2
SYMATTR InstName D2
SYMBOL res 160 560 R90
WINDOW 0 0 56 VBottom 2
WINDOW 3 32 56 VTop 2
SYMATTR InstName R5
SYMATTR Value 2
SYMBOL ind 0 -144 R270
WINDOW 0 32 56 VTop 2
WINDOW 3 5 56 VBottom 2
SYMATTR InstName L4
SYMATTR Value 18e-9
SYMBOL current 608 464 R0
WINDOW 123 0 0 Left 0
WINDOW 39 0 0 Left 0
SYMATTR InstName I1
SYMATTR Value 20
SYMBOL GaN_E-HEMT_LT_GS66508B_L1V2 160 48 R0
SYMATTR InstName U1
SYMBOL GaN_E-HEMT_LT_GS66508B_L1V2 160 464 R0
SYMATTR InstName U2
SYMBOL res 192 736 R0
SYMATTR InstName R8
SYMATTR Value 0.243e-3
SYMBOL res 352 768 R0
SYMATTR InstName R9
SYMATTR Value 880
SYMBOL cap 352 624 R0
SYMATTR InstName C3
SYMATTR Value 1e-9
SYMBOL voltage 912 864 R0
WINDOW 123 0 0 Left 0
WINDOW 39 0 0 Left 0
SYMATTR InstName V4
SYMATTR Value 10
SYMBOL voltage 1008 864 R0
WINDOW 123 0 0 Left 0
WINDOW 39 0 0 Left 0
SYMATTR InstName V5
SYMATTR Value -10
SYMBOL res 1120 464 R0
SYMATTR InstName R3
SYMATTR Value 1k
SYMBOL res 1120 336 R0
SYMATTR InstName R6
SYMATTR Value 100
SYMBOL res 1120 224 R0
SYMATTR InstName R7
SYMATTR Value 1k
SYMBOL res 1296 224 R90
WINDOW 0 0 56 VBottom 2
WINDOW 3 32 56 VTop 2
SYMATTR InstName R10
SYMATTR Value 1k
SYMBOL res 1296 544 R90
WINDOW 0 0 56 VBottom 2
WINDOW 3 32 56 VTop 2
SYMATTR InstName R11
SYMATTR Value 1k
SYMBOL res 1408 224 R90
WINDOW 0 0 56 VBottom 2
WINDOW 3 32 56 VTop 2
SYMATTR InstName R12
SYMATTR Value 1k
SYMBOL res 1408 544 R90
WINDOW 0 0 56 VBottom 2
WINDOW 3 32 56 VTop 2
SYMATTR InstName R13
SYMATTR Value 1k
SYMBOL Opamps\\UniversalOpamp2 1072 240 R0
SYMATTR InstName U3
SYMATTR Value2 Avol=31.6228k GBW=3900Meg Slew=950Meg
SYMBOL Opamps\\UniversalOpamp2 1072 560 R0
SYMATTR InstName U4
SYMATTR Value2 Avol=31.6228k GBW=3900Meg Slew=950Meg
SYMBOL Opamps\\UniversalOpamp2 1360 384 R0
SYMATTR InstName U5
SYMATTR Value2 Avol=31.6228k GBW=3900Meg Slew=950Meg
TEXT -384 728 Left 2 !.tran 100e-6
TEXT -376 704 Left 2 !.option temp=25
TEXT -384 752 Left 2 !;ac dec 5 1 5000e6
TEXT 512 -88 Left 2 ;For 155.5 x 155.5 mil trace (Source Pin Dimension)\n2 oz/ft^2 thickness\n \n25C - 0.243 mohm\n50C - 0.267 mohm\n75C - 0.29 mohm\n100C - 0.314 mohm\n125C - 0.338 mohm\n150C - 0.361 mohm\nL = 1.108404 nH
