Version 4
SHEET 1 2296 1184
WIRE 16 -160 -352 -160
WIRE 208 -160 96 -160
WIRE 1216 -32 1216 -80
WIRE 1312 -32 1312 -80
WIRE 208 0 208 -160
WIRE -160 80 -176 80
WIRE -64 80 -80 80
WIRE -16 80 -64 80
WIRE 128 80 64 80
WIRE 144 80 128 80
WIRE 1216 80 1216 48
WIRE 1264 80 1216 80
WIRE 1312 80 1312 48
WIRE 1312 80 1264 80
WIRE -352 112 -352 -160
WIRE -176 128 -176 80
WIRE -64 144 -64 80
WIRE -48 144 -64 144
WIRE 32 144 16 144
WIRE 128 144 128 80
WIRE 128 144 112 144
WIRE 1536 144 1312 144
WIRE 1664 144 1616 144
WIRE 1696 144 1664 144
WIRE 1904 144 1776 144
WIRE -336 192 -352 192
WIRE -176 224 -176 208
WIRE 160 224 160 112
WIRE 160 224 -176 224
WIRE 1312 224 1312 144
WIRE 1312 224 1280 224
WIRE 1360 224 1312 224
WIRE 1504 224 1440 224
WIRE 208 272 208 96
WIRE 608 272 208 272
WIRE 1376 320 1360 320
WIRE 1760 352 1728 352
WIRE 1312 368 1312 224
WIRE 1328 368 1312 368
WIRE 1376 368 1376 320
WIRE 1328 384 1328 368
WIRE 1344 384 1328 384
WIRE 1504 400 1504 224
WIRE 1504 400 1408 400
WIRE 1536 400 1504 400
WIRE 1664 400 1664 144
WIRE 1664 400 1616 400
WIRE 1696 400 1664 400
WIRE 1760 400 1760 352
WIRE 208 416 208 272
WIRE 1344 416 1328 416
WIRE 1696 416 1696 400
WIRE 1728 416 1696 416
WIRE 1328 432 1328 416
WIRE 1328 432 1248 432
WIRE 1376 432 1360 432
WIRE 1904 432 1904 144
WIRE 1904 432 1792 432
WIRE 1968 432 1904 432
WIRE 2032 432 1968 432
WIRE 1728 448 1696 448
WIRE 1968 448 1968 432
WIRE 608 464 608 272
WIRE 1696 464 1696 448
WIRE 1696 464 1616 464
WIRE 1360 480 1360 432
WIRE -144 496 -176 496
WIRE -16 496 -64 496
WIRE 144 496 64 496
WIRE 1760 512 1760 464
WIRE 1760 512 1728 512
WIRE 1984 512 1968 512
WIRE 2032 512 1984 512
WIRE 1984 528 1984 512
WIRE 1984 528 1904 528
WIRE -176 560 -176 496
WIRE 208 560 208 512
WIRE 256 560 208 560
WIRE -16 576 -16 496
WIRE 64 576 48 576
WIRE 144 576 144 496
WIRE 256 576 256 560
WIRE 368 576 256 576
WIRE 432 576 368 576
WIRE 208 592 208 560
WIRE 368 624 368 576
WIRE -176 672 -176 640
WIRE 160 672 160 528
WIRE 160 672 -176 672
WIRE 368 720 368 688
WIRE 432 720 368 720
WIRE 368 736 368 720
WIRE 480 736 368 736
WIRE 208 752 208 672
WIRE 368 752 368 736
WIRE 480 752 480 736
WIRE 368 864 368 832
WIRE 480 864 480 832
WIRE 480 864 368 864
WIRE 368 880 368 864
WIRE -336 992 -336 192
WIRE 208 992 208 832
WIRE 208 992 -336 992
WIRE 368 992 368 960
WIRE 368 992 208 992
WIRE 608 992 608 544
WIRE 608 992 368 992
WIRE 208 1024 208 992
FLAG 208 1024 0
FLAG 1216 -80 Vpos
FLAG 1312 -80 Vneg
FLAG 1264 80 Vgnd
FLAG -176 672 Vgnd
FLAG 432 576 Vcp
FLAG 432 720 Vcn
FLAG 1616 464 Vcp
FLAG 1248 432 Vcn
FLAG 1360 320 Vpos
FLAG 1728 352 Vpos
FLAG 1360 480 Vneg
FLAG 1728 512 Vneg
FLAG 1200 224 Vgnd
FLAG 1904 432 Vamp
FLAG 1904 528 Vgnd
SYMBOL voltage -352 96 R0
WINDOW 123 0 0 Left 0
WINDOW 39 0 0 Left 0
SYMATTR InstName V1
SYMATTR Value 270
SYMBOL res 80 64 R90
WINDOW 0 0 56 VBottom 2
WINDOW 3 32 56 VTop 2
SYMATTR InstName R1
SYMATTR Value 10
SYMBOL res 80 480 R90
WINDOW 0 0 56 VBottom 2
WINDOW 3 32 56 VTop 2
SYMATTR InstName R2
SYMATTR Value 10
SYMBOL ind -64 64 R90
WINDOW 0 5 56 VBottom 2
WINDOW 3 32 56 VTop 2
SYMATTR InstName L1
SYMATTR Value 2e-9
SYMBOL ind -48 480 R90
WINDOW 0 5 56 VBottom 2
WINDOW 3 32 56 VTop 2
SYMATTR InstName L2
SYMATTR Value 2e-9
SYMBOL voltage -176 112 R0
WINDOW 123 0 0 Left 0
WINDOW 39 0 0 Left 0
SYMATTR InstName V2
SYMATTR Value PULSE(6 -3 10000e-9 1e-9 1e-9 9900e-9 20000e-9)
SYMBOL voltage -176 544 R0
WINDOW 123 0 0 Left 0
WINDOW 39 0 0 Left 0
SYMATTR InstName V3
SYMATTR Value PULSE(-3 6 10000e-9 1e-9 1e-9 9900e-9 20000e-9)
SYMBOL ind 192 576 R0
SYMATTR InstName Lparasitic
SYMATTR Value 1.11e-9
SYMATTR SpiceLine Rser=0
SYMBOL res 128 128 R90
WINDOW 0 0 56 VBottom 2
WINDOW 3 32 56 VTop 2
SYMATTR InstName R4
SYMATTR Value 2
SYMBOL diode 16 128 R90
WINDOW 0 0 32 VBottom 2
WINDOW 3 32 32 VTop 2
SYMATTR InstName D1
SYMBOL diode 48 560 R90
WINDOW 0 0 32 VBottom 2
WINDOW 3 32 32 VTop 2
SYMATTR InstName D2
SYMBOL res 160 560 R90
WINDOW 0 0 56 VBottom 2
WINDOW 3 32 56 VTop 2
SYMATTR InstName R5
SYMATTR Value 2
SYMBOL ind 0 -144 R270
WINDOW 0 32 56 VTop 2
WINDOW 3 5 56 VBottom 2
SYMATTR InstName L4
SYMATTR Value 18e-9
SYMBOL current 608 464 R0
WINDOW 123 0 0 Left 0
WINDOW 39 0 0 Left 0
SYMATTR InstName I1
SYMATTR Value 20
SYMBOL GaN_E-HEMT_LT_GS66508B_L1V2 160 48 R0
SYMATTR InstName U1
SYMBOL GaN_E-HEMT_LT_GS66508B_L1V2 160 464 R0
SYMATTR InstName U2
SYMBOL res 192 736 R0
SYMATTR InstName R8
SYMATTR Value 0.243e-3
SYMBOL res 352 736 R0
SYMATTR InstName R9
SYMATTR Value 2.2k
SYMBOL cap 352 624 R0
SYMATTR InstName C3
SYMATTR Value 1e-9
SYMBOL voltage 1216 -48 R0
WINDOW 123 0 0 Left 0
WINDOW 39 0 0 Left 0
SYMATTR InstName V4
SYMATTR Value 5
SYMBOL voltage 1312 -48 R0
WINDOW 123 0 0 Left 0
WINDOW 39 0 0 Left 0
SYMATTR InstName V5
SYMATTR Value -5
SYMBOL res 1632 384 R90
WINDOW 0 0 56 VBottom 2
WINDOW 3 32 56 VTop 2
SYMATTR InstName R3
SYMATTR Value 1k
SYMBOL res 1456 208 R90
WINDOW 0 0 56 VBottom 2
WINDOW 3 32 56 VTop 2
SYMATTR InstName R6
SYMATTR Value 1k
SYMBOL res 1296 208 R90
WINDOW 0 0 56 VBottom 2
WINDOW 3 32 56 VTop 2
SYMATTR InstName R7
SYMATTR Value 10k
SYMBOL res 1632 128 R90
WINDOW 0 0 56 VBottom 2
WINDOW 3 32 56 VTop 2
SYMATTR InstName R10
SYMATTR Value 220
SYMBOL res 1792 128 R90
WINDOW 0 0 56 VBottom 2
WINDOW 3 32 56 VTop 2
SYMATTR InstName R11
SYMATTR Value 10k
SYMBOL Opamps\\LT1813 1376 336 R0
SYMATTR InstName U5
SYMBOL Opamps\\LT1813 1760 368 R0
SYMATTR InstName U3
SYMBOL cap 1952 448 R0
SYMATTR InstName C2
SYMATTR Value 2.7p
SYMBOL res 2016 416 R0
SYMATTR InstName R18
SYMATTR Value 1k
SYMBOL res 464 736 R0
SYMATTR InstName R19
SYMATTR Value {Rntc}
SYMBOL res 352 864 R0
SYMATTR InstName R20
SYMATTR Value 2.74k
TEXT -384 728 Left 2 !.tran 100e-6
TEXT -376 704 Left 2 !.option temp=125
TEXT -384 752 Left 2 !;ac dec 5 1 5000e6
TEXT 512 -88 Left 2 ;For 155.5 x 155.5 mil trace (Source Pin Dimension)\n2 oz/ft^2 thickness\n \n25C - 0.243 mohm\n50C - 0.267 mohm\n75C - 0.29 mohm\n100C - 0.314 mohm\n125C - 0.338 mohm\n150C - 0.361 mohm\nL = 1.108404 nH
TEXT -432 1088 Left 2 !.param Rntc=10k*exp(B*(1/(temp + 273.5 )+1/(273.5+25)))
TEXT -432 1064 Left 2 !.param B = 3455
