Version 4
SHEET 1 1568 748
WIRE 16 -160 -352 -160
WIRE 208 -160 96 -160
WIRE 208 -32 208 -160
WIRE 304 -32 208 -32
WIRE 208 0 208 -32
WIRE 288 32 256 32
WIRE -1200 80 -1216 80
WIRE -160 80 -176 80
WIRE -64 80 -80 80
WIRE -16 80 -64 80
WIRE 128 80 64 80
WIRE 144 80 128 80
WIRE -1216 112 -1216 80
WIRE -352 112 -352 -160
WIRE 256 112 256 64
WIRE 288 112 288 32
WIRE 288 112 256 112
WIRE -176 128 -176 80
WIRE -64 144 -64 80
WIRE -48 144 -64 144
WIRE 32 144 16 144
WIRE 128 144 128 80
WIRE 128 144 112 144
WIRE -176 224 -176 208
WIRE 160 224 160 112
WIRE 160 224 -176 224
WIRE -784 256 -784 240
WIRE -1216 272 -1216 192
WIRE -1040 272 -1216 272
WIRE -1008 272 -1040 272
WIRE -816 272 -1008 272
WIRE 208 272 208 96
WIRE 608 272 208 272
WIRE -1216 288 -1216 272
WIRE -624 288 -624 272
WIRE -624 288 -752 288
WIRE -816 304 -896 304
WIRE 1232 304 1232 288
WIRE 1328 304 1328 288
WIRE -896 320 -896 304
WIRE -784 336 -784 320
WIRE -1040 352 -1040 272
WIRE 1152 352 1152 336
WIRE 1056 368 1056 320
WIRE 1088 368 1056 368
WIRE 1120 368 1088 368
WIRE 1280 384 1184 384
WIRE 896 400 848 400
WIRE 992 400 976 400
WIRE 1120 400 992 400
WIRE 208 416 208 272
WIRE -1104 432 -1136 432
WIRE -1040 432 -1040 416
WIRE -1040 432 -1104 432
WIRE -1008 432 -1040 432
WIRE -912 432 -1008 432
WIRE -896 432 -896 400
WIRE -896 432 -912 432
WIRE 304 448 256 448
WIRE 1152 448 1152 416
WIRE -1216 464 -1216 368
WIRE -1104 464 -1104 432
WIRE -1104 464 -1216 464
WIRE 608 464 608 272
WIRE -1008 480 -1008 432
WIRE -912 480 -912 432
WIRE 304 480 304 448
WIRE 304 480 256 480
WIRE 992 480 992 400
WIRE -144 496 -176 496
WIRE -16 496 -64 496
WIRE 144 496 64 496
WIRE -176 560 -176 496
WIRE 208 560 208 512
WIRE 304 560 208 560
WIRE -16 576 -16 496
WIRE 64 576 48 576
WIRE 144 576 144 496
WIRE 208 592 208 560
WIRE 992 592 992 544
WIRE -176 672 -176 640
WIRE 160 672 160 528
WIRE 160 672 -176 672
WIRE -352 720 -352 192
WIRE 208 720 208 672
WIRE 208 720 -352 720
WIRE 608 720 608 544
WIRE 608 720 208 720
FLAG 208 720 0
FLAG 304 560 Vpara
FLAG 848 400 Vpara
FLAG 992 592 0
FLAG 1232 304 0
FLAG 1232 208 Vcc
FLAG 1152 336 Vcc
FLAG 1280 384 ParasResult
FLAG 1056 240 0
FLAG 1328 304 0
FLAG 1328 208 Vee
FLAG 1152 448 Vee
FLAG 992 400 Vfilter
FLAG 1088 368 Vref
FLAG 304 -32 Vpos
FLAG -1200 80 Vpos
FLAG -1136 432 Vpara
FLAG -912 560 Vcc2
FLAG -1008 560 Vee2
FLAG -784 240 Vcc2
FLAG -784 336 Vee2
FLAG -896 304 Vref2
FLAG -1008 272 Vfilt2
FLAG -624 272 DSVResult
FLAG -1216 272 Vdiv
FLAG -624 432 Vpara
SYMBOL voltage -352 96 R0
WINDOW 123 0 0 Left 0
WINDOW 39 0 0 Left 0
SYMATTR InstName V1
SYMATTR Value 270
SYMBOL res 80 64 R90
WINDOW 0 0 56 VBottom 2
WINDOW 3 32 56 VTop 2
SYMATTR InstName R1
SYMATTR Value 10
SYMBOL res 80 480 R90
WINDOW 0 0 56 VBottom 2
WINDOW 3 32 56 VTop 2
SYMATTR InstName R2
SYMATTR Value 10
SYMBOL ind -64 64 R90
WINDOW 0 5 56 VBottom 2
WINDOW 3 32 56 VTop 2
SYMATTR InstName L1
SYMATTR Value 2e-9
SYMBOL ind -48 480 R90
WINDOW 0 5 56 VBottom 2
WINDOW 3 32 56 VTop 2
SYMATTR InstName L2
SYMATTR Value 2e-9
SYMBOL voltage -176 112 R0
WINDOW 123 0 0 Left 0
WINDOW 39 0 0 Left 0
SYMATTR InstName V2
SYMATTR Value PULSE(-3 6 00e-9 1e-9 1e-9 400e-9 1000e-9)
SYMBOL voltage -176 544 R0
WINDOW 123 0 0 Left 0
WINDOW 39 0 0 Left 0
SYMATTR InstName V3
SYMATTR Value PULSE(-3 6 0e-9 1e-9 1e-9 400e-9 1000e-9)
SYMBOL ind 192 576 R0
SYMATTR InstName Lparasitic
SYMATTR Value 3e-9
SYMBOL res 992 384 R90
WINDOW 0 0 56 VBottom 2
WINDOW 3 32 56 VTop 2
SYMATTR InstName R3
SYMATTR Value 2
SYMBOL cap 976 480 R0
SYMATTR InstName C1
SYMATTR Value 22e-9
SYMBOL voltage 1056 336 R180
WINDOW 0 24 96 Left 2
WINDOW 3 24 16 Left 2
WINDOW 123 0 0 Left 0
WINDOW 39 0 0 Left 0
SYMATTR InstName V4
SYMATTR Value 4
SYMBOL voltage 1232 192 R0
WINDOW 123 0 0 Left 0
WINDOW 39 0 0 Left 0
SYMATTR InstName V5
SYMATTR Value 5
SYMBOL res 128 128 R90
WINDOW 0 0 56 VBottom 2
WINDOW 3 32 56 VTop 2
SYMATTR InstName R4
SYMATTR Value 2
SYMBOL diode 16 128 R90
WINDOW 0 0 32 VBottom 2
WINDOW 3 32 32 VTop 2
SYMATTR InstName D1
SYMBOL diode 48 560 R90
WINDOW 0 0 32 VBottom 2
WINDOW 3 32 32 VTop 2
SYMATTR InstName D2
SYMBOL res 160 560 R90
WINDOW 0 0 56 VBottom 2
WINDOW 3 32 56 VTop 2
SYMATTR InstName R5
SYMATTR Value 2
SYMBOL voltage 1328 192 R0
WINDOW 123 0 0 Left 0
WINDOW 39 0 0 Left 0
SYMATTR InstName V6
SYMATTR Value -5
SYMBOL Opamps\\UniversalOpamp2 1152 384 R0
SYMATTR InstName U3
SYMATTR Value2 Avol=1Meg GBW=100000Meg Slew=10000Meg
SYMBOL ind 0 -144 R270
WINDOW 0 32 56 VTop 2
WINDOW 3 5 56 VBottom 2
SYMATTR InstName L4
SYMATTR Value 30e-9
SYMBOL cap -1056 352 R0
SYMATTR InstName C2
SYMATTR Value 39e-12
SYMBOL res -1232 96 R0
SYMATTR InstName R6
SYMATTR Value 50k
SYMBOL res -1200 384 R180
WINDOW 0 36 76 Left 2
WINDOW 3 36 40 Left 2
SYMATTR InstName R7
SYMATTR Value 1k
SYMBOL voltage -896 304 R0
WINDOW 123 0 0 Left 0
WINDOW 39 0 0 Left 0
SYMATTR InstName V7
SYMATTR Value 4.3
SYMBOL voltage -912 576 R180
WINDOW 123 0 0 Left 0
WINDOW 39 0 0 Left 0
SYMATTR InstName V8
SYMATTR Value 5
SYMBOL voltage -1008 576 R180
WINDOW 123 0 0 Left 0
WINDOW 39 0 0 Left 0
SYMATTR InstName V9
SYMATTR Value -5
SYMBOL current 608 464 R0
WINDOW 123 0 0 Left 0
WINDOW 39 0 0 Left 0
SYMATTR InstName I1
SYMATTR Value 20
SYMBOL GaN_E-HEMT_LT_GS66508B_L1V2 160 48 R0
SYMATTR InstName U1
SYMBOL GaN_E-HEMT_LT_GS66508B_L1V2 160 464 R0
SYMATTR InstName U2
SYMBOL Opamps\\UniversalOpamp2 -784 288 R0
SYMATTR InstName U4
SYMATTR Value2 Avol=1Meg GBW=100000Meg Slew=10000Meg
TEXT -384 728 Left 2 !.tran 2e-6
TEXT -376 704 Left 2 !.option temp=25
