Version 4
SHEET 1 1888 740
WIRE -688 -464 -1696 -464
WIRE -496 -464 -608 -464
WIRE 64 -464 -496 -464
WIRE -496 -304 -496 -464
WIRE 64 -304 64 -464
WIRE -432 -272 -448 -272
WIRE 128 -272 112 -272
WIRE -432 -240 -432 -272
WIRE -432 -240 -448 -240
WIRE 128 -240 128 -272
WIRE 128 -240 112 -240
WIRE -864 -224 -880 -224
WIRE -768 -224 -784 -224
WIRE -720 -224 -768 -224
WIRE -576 -224 -640 -224
WIRE -560 -224 -576 -224
WIRE -288 -224 -320 -224
WIRE -160 -224 -208 -224
WIRE -16 -224 -80 -224
WIRE 0 -224 -16 -224
WIRE -1696 -208 -1696 -464
WIRE -1696 -208 -1728 -208
WIRE -1664 -208 -1696 -208
WIRE -768 -160 -768 -224
WIRE -752 -160 -768 -160
WIRE -672 -160 -688 -160
WIRE -576 -160 -576 -224
WIRE -576 -160 -592 -160
WIRE -208 -160 -208 -224
WIRE -192 -160 -208 -160
WIRE -112 -160 -128 -160
WIRE -16 -160 -16 -224
WIRE -16 -160 -32 -160
WIRE -1664 -144 -1664 -208
WIRE -1536 -144 -1664 -144
WIRE -1392 -144 -1456 -144
WIRE -496 -144 -496 -208
WIRE 16 -144 16 -192
WIRE 64 -144 64 -208
WIRE -544 -112 -544 -192
WIRE -1728 -96 -1728 -208
WIRE 64 -32 64 -64
WIRE 80 -32 64 -32
WIRE -496 0 -496 -64
WIRE -448 0 -496 0
WIRE -240 0 -368 0
WIRE -64 0 -240 0
WIRE 80 0 80 -32
WIRE 80 0 16 0
WIRE -1728 32 -1728 -16
WIRE -1728 32 -1760 32
WIRE -1696 32 -1728 32
WIRE -1392 32 -1392 -144
WIRE -1264 32 -1392 32
WIRE -1168 32 -1184 32
WIRE -240 48 -240 0
WIRE 496 48 -240 48
WIRE -1760 64 -1760 32
WIRE -1728 64 -1728 32
WIRE -1696 64 -1696 32
WIRE -1392 112 -1392 32
WIRE -1168 112 -1168 32
WIRE -496 112 -496 0
WIRE -432 144 -448 144
WIRE 80 160 80 0
WIRE -1760 176 -1760 128
WIRE -1728 176 -1728 128
WIRE -1728 176 -1760 176
WIRE -1696 176 -1696 128
WIRE -1696 176 -1728 176
WIRE -432 176 -432 144
WIRE -432 176 -448 176
WIRE 496 176 496 48
WIRE -848 192 -880 192
WIRE -720 192 -768 192
WIRE -560 192 -640 192
WIRE 144 192 128 192
WIRE 144 224 144 192
WIRE 144 224 128 224
WIRE -288 240 -336 240
WIRE -192 240 -208 240
WIRE -144 240 -192 240
WIRE 0 240 -64 240
WIRE 16 240 0 240
WIRE -1392 256 -1392 176
WIRE -1264 256 -1392 256
WIRE -1168 256 -1168 192
WIRE -1168 256 -1184 256
WIRE -1136 256 -1168 256
WIRE -720 272 -720 192
WIRE -640 272 -656 272
WIRE -560 272 -560 192
WIRE -192 304 -192 240
WIRE -176 304 -192 304
WIRE -96 304 -112 304
WIRE 0 304 0 240
WIRE 0 304 -16 304
WIRE -544 320 -544 224
WIRE 32 336 32 272
WIRE -1536 352 -1584 352
WIRE -1392 352 -1392 256
WIRE -1392 352 -1456 352
WIRE -1728 496 -1728 176
WIRE -1696 496 -1728 496
WIRE -1584 496 -1584 352
WIRE -1584 496 -1696 496
WIRE -1696 688 -1696 496
WIRE -496 688 -496 208
WIRE -496 688 -1696 688
WIRE 80 688 80 256
WIRE 80 688 -496 688
WIRE 496 688 496 256
WIRE 496 688 80 688
WIRE -496 720 -496 688
FLAG -496 720 0
FLAG -720 -704 PGDH
FLAG -880 -224 PGDH
FLAG -320 -224 PGDH
FLAG -720 -624 NGDH
FLAG -544 -112 NGDH
FLAG 16 -144 NGDH
FLAG -1216 -720 PGDL
FLAG -880 192 PGDL
FLAG -1216 -640 NGDL
FLAG -544 320 NGDL
FLAG -336 240 PGDL
FLAG 32 336 NGDL
SYMBOL res -624 -240 R90
WINDOW 0 0 56 VBottom 2
WINDOW 3 32 56 VTop 2
SYMATTR InstName R1
SYMATTR Value 10
SYMBOL res -624 176 R90
WINDOW 0 0 56 VBottom 2
WINDOW 3 32 56 VTop 2
SYMATTR InstName R2
SYMATTR Value 10
SYMBOL ind -768 -240 R90
WINDOW 0 5 56 VBottom 2
WINDOW 3 32 56 VTop 2
SYMATTR InstName L1
SYMATTR Value 2e-9
SYMBOL ind -752 176 R90
WINDOW 0 5 56 VBottom 2
WINDOW 3 32 56 VTop 2
SYMATTR InstName L2
SYMATTR Value 2e-9
SYMBOL voltage -720 -720 R0
WINDOW 123 0 0 Left 0
WINDOW 39 0 0 Left 0
SYMATTR InstName V2
SYMATTR Value PULSE(-3 6 {DT} 1n 1n {T_ON-2*DT} {T_P} 2)
SYMBOL voltage -1216 -736 R0
WINDOW 123 0 0 Left 0
WINDOW 39 0 0 Left 0
SYMATTR InstName V3
SYMATTR Value PULSE(6 -3 0 1n 1n {T_ON} {T_P} 2)
SYMBOL res -576 -176 R90
WINDOW 0 0 56 VBottom 2
WINDOW 3 32 56 VTop 2
SYMATTR InstName R3
SYMATTR Value 2
SYMBOL diode -688 -176 R90
WINDOW 0 0 32 VBottom 2
WINDOW 3 32 32 VTop 2
SYMATTR InstName D1
SYMBOL diode -656 256 R90
WINDOW 0 0 32 VBottom 2
WINDOW 3 32 32 VTop 2
SYMATTR InstName D2
SYMBOL res -544 256 R90
WINDOW 0 0 56 VBottom 2
WINDOW 3 32 56 VTop 2
SYMATTR InstName R4
SYMATTR Value 2
SYMBOL ind -704 -448 R270
WINDOW 0 32 56 VTop 2
WINDOW 3 5 56 VBottom 2
SYMATTR InstName L3
SYMATTR Value 18e-9
SYMBOL GaN_E-HEMT_LT_GS66508B_L3V2 -544 -256 R0
WINDOW 3 -50 -61 Center 2
SYMATTR InstName U1
SYMBOL GaN_E-HEMT_LT_GS66508B_L3V2 -544 160 R0
WINDOW 3 -45 -67 Center 2
SYMATTR InstName U2
SYMBOL GaN_E-HEMT_LT_GS66508B_L3V2 16 -256 R0
WINDOW 3 211 -1 Center 2
SYMATTR InstName U3
SYMBOL GaN_E-HEMT_LT_GS66508B_L3V2 32 208 R0
WINDOW 3 207 1 Center 2
SYMATTR InstName U4
SYMBOL res -64 -240 R90
WINDOW 0 0 56 VBottom 2
WINDOW 3 32 56 VTop 2
SYMATTR InstName R5
SYMATTR Value 10
SYMBOL res -16 -176 R90
WINDOW 0 0 56 VBottom 2
WINDOW 3 32 56 VTop 2
SYMATTR InstName R6
SYMATTR Value 2
SYMBOL diode -128 -176 R90
WINDOW 0 0 32 VBottom 2
WINDOW 3 32 32 VTop 2
SYMATTR InstName D3
SYMBOL ind -304 -208 R270
WINDOW 0 32 56 VTop 2
WINDOW 3 5 56 VBottom 2
SYMATTR InstName L4
SYMATTR Value 2e-9
SYMBOL res -48 224 R90
WINDOW 0 0 56 VBottom 2
WINDOW 3 32 56 VTop 2
SYMATTR InstName R7
SYMATTR Value 10
SYMBOL res 0 288 R90
WINDOW 0 0 56 VBottom 2
WINDOW 3 32 56 VTop 2
SYMATTR InstName R8
SYMATTR Value 2
SYMBOL diode -112 288 R90
WINDOW 0 0 32 VBottom 2
WINDOW 3 32 32 VTop 2
SYMATTR InstName D4
SYMBOL ind -304 256 R270
WINDOW 0 32 56 VTop 2
WINDOW 3 5 56 VBottom 2
SYMATTR InstName L5
SYMATTR Value 2e-9
SYMBOL ind -352 -16 R90
WINDOW 0 5 56 VBottom 2
WINDOW 3 32 56 VTop 2
SYMATTR InstName L6
SYMATTR Value {L_Load}
SYMBOL ind 32 -16 R90
WINDOW 0 5 56 VBottom 2
WINDOW 3 32 56 VTop 2
SYMATTR InstName L7
SYMATTR Value {L_Load}
SYMBOL ind 480 160 R0
SYMATTR InstName L8
SYMATTR Value {L_DPT}
SYMBOL cap -1408 112 R0
SYMATTR InstName C1
SYMATTR Value 5e-6
SYMATTR SpiceLine IC={VBUS} Rser=23e-3 Lser=19.9e-9
SYMBOL ind2 -1168 16 R90
WINDOW 0 5 56 VBottom 2
WINDOW 3 32 56 VTop 2
SYMATTR InstName L9
SYMATTR Value 29.8n
SYMATTR SpiceLine Rser=1037u
SYMATTR Type ind
SYMBOL ind -1168 240 R90
WINDOW 0 5 56 VBottom 2
WINDOW 3 32 56 VTop 2
SYMATTR InstName L10
SYMATTR Value 48.6n
SYMATTR SpiceLine Rser=1422u
SYMBOL ind2 -1552 -128 R270
WINDOW 0 32 56 VTop 2
WINDOW 3 5 56 VBottom 2
SYMATTR InstName L11
SYMATTR Value 7.14n
SYMATTR SpiceLine Rser=854u
SYMATTR Type ind
SYMBOL ind2 -1440 336 R90
WINDOW 0 5 56 VBottom 2
WINDOW 3 32 56 VTop 2
SYMATTR InstName L12
SYMATTR Value 5.658n
SYMATTR SpiceLine Rser=664u
SYMATTR Type ind
SYMBOL voltage -1168 96 R0
WINDOW 123 0 0 Left 0
WINDOW 39 24 124 Left 2
SYMATTR SpiceLine Rser=0
SYMATTR InstName V4
SYMATTR Value {VBUS}
SYMBOL cap -1712 64 R0
SYMATTR InstName C2
SYMATTR Value 0.1µ
SYMATTR SpiceLine Rser=17.5m Lser=0.75n IC={VBUS}
SYMBOL cap -1744 64 R0
SYMATTR InstName C3
SYMATTR Value 0.1µ
SYMATTR SpiceLine Rser=17.5m Lser=0.75n IC={VBUS}
SYMBOL cap -1776 64 R0
SYMATTR InstName C4
SYMATTR Value 0.1µ
SYMATTR SpiceLine Rser=17.5m Lser=0.75n IC={VBUS}
SYMBOL ind2 -1712 0 R180
WINDOW 0 36 80 Left 2
WINDOW 3 36 40 Left 2
SYMATTR InstName L13
SYMATTR Value 6.28n
SYMATTR Type ind
SYMBOL ind 48 -160 R0
SYMATTR InstName L14
SYMATTR Value {Lright}
SYMBOL ind -512 -160 R0
SYMATTR InstName L15
SYMATTR Value {Lleft}
TEXT 792 -464 Left 2 !.tran 0 30U 0
TEXT 800 -424 Left 2 !.option ITL1 = 500
TEXT 800 -392 Left 2 !.option ITL2 = 500
TEXT 800 -360 Left 2 !.option ITL4 = 500
TEXT 808 -328 Left 2 !.option RELTOL = 0.01
TEXT 808 -304 Left 2 !.option ABSTOL=1E-09
TEXT 808 -272 Left 2 !.option CHGTOL=1E-12
TEXT 816 -240 Left 2 !.option VNTOL=1E-6
TEXT 808 -208 Left 2 !.option GMIN=1E-15
TEXT 816 -168 Left 2 !.option TRTOL=1
TEXT 816 -128 Left 2 !.option noopiter
TEXT 816 -96 Left 2 !.option gminsteps=0
TEXT 808 -56 Left 2 !.option topologycheck=0
TEXT 816 -16 Left 2 !.option temp=25
TEXT 816 32 Left 2 !.param VBUS=125
TEXT 824 64 Left 2 !.param ISW=20
TEXT 816 96 Left 2 !.step param L_Load list 1e-12 10e-9 20e-9
TEXT 816 120 Left 2 !.param Rgoff = 2
TEXT 824 152 Left 2 !.param VDRV_P=6
TEXT 824 184 Left 2 !.param VDRV_N=3
TEXT 832 216 Left 2 !.param DT=1U
TEXT 832 248 Left 2 !.param T_ON=10U
TEXT 688 272 Left 2 !.param L_DPT=VBUS*(T_ON-2*DT)/ISW
TEXT 696 320 Left 2 !.param T_P = 21U
TEXT 704 368 Left 2 !.param L_GTOPPOS = 6.5N
TEXT 712 408 Left 2 !.param LS_EX = 10p
TEXT 720 456 Left 2 !.param L_Load=3n
TEXT 704 512 Left 2 !.param L_GTOPNEG = 2.8N
TEXT 712 552 Left 2 !.param L_GBOTPOS = 5.03N
TEXT 696 600 Left 2 !.param L_GBOTNEG = 2.92N
