Version 4
SHEET 1 1888 868
WIRE -1216 -464 -1696 -464
WIRE -496 -464 -1216 -464
WIRE 64 -464 -496 -464
WIRE 224 -464 64 -464
WIRE 320 -432 320 -480
WIRE 480 -432 480 -480
WIRE 640 -432 640 -480
WIRE 800 -432 800 -480
WIRE 320 -352 272 -352
WIRE 480 -352 448 -352
WIRE 640 -352 592 -352
WIRE 800 -352 752 -352
WIRE 272 -336 272 -352
WIRE 320 -336 320 -352
WIRE 448 -336 448 -352
WIRE 480 -336 480 -352
WIRE 640 -336 640 -352
WIRE 800 -336 800 -352
WIRE 592 -320 592 -352
WIRE 752 -320 752 -352
WIRE -496 -304 -496 -464
WIRE 64 -304 64 -464
WIRE -816 -224 -880 -224
WIRE -720 -224 -816 -224
WIRE -576 -224 -640 -224
WIRE -560 -224 -576 -224
WIRE -208 -224 -320 -224
WIRE -160 -224 -208 -224
WIRE -16 -224 -80 -224
WIRE 0 -224 -16 -224
WIRE -1696 -208 -1696 -464
WIRE -496 -192 -496 -208
WIRE -496 -192 -544 -192
WIRE 64 -192 64 -208
WIRE 64 -192 16 -192
WIRE -816 -160 -816 -224
WIRE -752 -160 -816 -160
WIRE -672 -160 -688 -160
WIRE -576 -160 -576 -224
WIRE -576 -160 -592 -160
WIRE -208 -160 -208 -224
WIRE -192 -160 -208 -160
WIRE -112 -160 -128 -160
WIRE -16 -160 -16 -224
WIRE -16 -160 -32 -160
WIRE 224 -160 224 -464
WIRE 16 -144 16 -192
WIRE -544 -112 -544 -192
WIRE -1696 -48 -1696 -128
WIRE 64 -32 64 -192
WIRE 80 -32 64 -32
WIRE -1216 0 -1216 -464
WIRE -496 0 -496 -192
WIRE 80 0 80 -32
WIRE 80 0 -496 0
WIRE 224 0 224 -80
WIRE 224 0 80 0
WIRE -1696 112 -1696 32
WIRE -496 112 -496 0
WIRE 80 160 80 0
WIRE -720 192 -880 192
WIRE -560 192 -640 192
WIRE -496 224 -496 208
WIRE -496 224 -544 224
WIRE -192 240 -336 240
WIRE -144 240 -192 240
WIRE 0 240 -64 240
WIRE 16 240 0 240
WIRE -720 272 -720 192
WIRE -640 272 -656 272
WIRE -560 272 -560 192
WIRE 80 272 80 256
WIRE 80 272 32 272
WIRE -192 304 -192 240
WIRE -176 304 -192 304
WIRE -96 304 -112 304
WIRE 0 304 0 240
WIRE 0 304 -16 304
WIRE -544 320 -544 224
WIRE 32 336 32 272
WIRE -1696 480 -1696 192
WIRE -1216 480 -1216 64
WIRE -1216 480 -1696 480
WIRE -912 480 -1216 480
WIRE -496 480 -496 224
WIRE -496 480 -832 480
WIRE 80 480 80 272
WIRE 80 480 -496 480
WIRE -496 512 -496 480
WIRE -912 592 -976 592
WIRE -672 592 -832 592
WIRE -672 624 -672 592
WIRE -672 720 -672 704
WIRE -496 720 -672 720
WIRE -672 736 -672 720
WIRE -976 816 -976 592
WIRE -736 816 -976 816
WIRE -672 816 -672 800
WIRE -672 816 -736 816
WIRE -736 848 -736 816
FLAG -496 512 0
FLAG 832 640 PGDH
FLAG -880 -224 PGDH
FLAG -320 -224 PGDH
FLAG 832 720 NGDH
FLAG -544 -112 NGDH
FLAG 16 -144 NGDH
FLAG 336 624 PGDL
FLAG -880 192 PGDL
FLAG 336 704 NGDL
FLAG -544 320 NGDL
FLAG -336 240 PGDL
FLAG 32 336 NGDL
FLAG -448 176 C3
FLAG 128 224 C4
FLAG 112 -240 C2
FLAG -448 -240 C1
FLAG 320 -336 C1
FLAG 320 -480 Tj1
FLAG -448 -272 Tj1
FLAG -448 144 Tj3
FLAG 128 192 Tj4
FLAG 112 -272 Tj2
FLAG 480 -336 C2
FLAG 480 -480 Tj2
FLAG 640 -336 C3
FLAG 640 -480 Tj3
FLAG 800 -336 C4
FLAG 800 -480 Tj4
FLAG 272 -336 0
FLAG 448 -336 0
FLAG 592 -320 0
FLAG 752 -320 0
FLAG -736 848 0
SYMBOL res -624 -240 R90
WINDOW 0 0 56 VBottom 2
WINDOW 3 32 56 VTop 2
SYMATTR InstName R1
SYMATTR Value 20
SYMBOL res -624 176 R90
WINDOW 0 0 56 VBottom 2
WINDOW 3 32 56 VTop 2
SYMATTR InstName R2
SYMATTR Value 20
SYMBOL voltage 832 624 R0
WINDOW 123 0 0 Left 0
WINDOW 39 0 0 Left 0
SYMATTR InstName V2
SYMATTR Value PULSE(0 6 0 1n 1n {T_ON} {T_P} 1)
SYMBOL voltage 336 608 R0
WINDOW 123 0 0 Left 0
WINDOW 39 0 0 Left 0
SYMATTR InstName V3
SYMATTR Value PULSE(-3 6 1u 1n 1n 500e-9 {T_P} 2)
SYMBOL res -576 -176 R90
WINDOW 0 0 56 VBottom 2
WINDOW 3 32 56 VTop 2
SYMATTR InstName R3
SYMATTR Value 10
SYMBOL diode -688 -176 R90
WINDOW 0 0 32 VBottom 2
WINDOW 3 32 32 VTop 2
SYMATTR InstName D1
SYMBOL diode -656 256 R90
WINDOW 0 0 32 VBottom 2
WINDOW 3 32 32 VTop 2
SYMATTR InstName D2
SYMBOL res -544 256 R90
WINDOW 0 0 56 VBottom 2
WINDOW 3 32 56 VTop 2
SYMATTR InstName R4
SYMATTR Value 2
SYMBOL res -64 -240 R90
WINDOW 0 0 56 VBottom 2
WINDOW 3 32 56 VTop 2
SYMATTR InstName R5
SYMATTR Value 20
SYMBOL res -16 -176 R90
WINDOW 0 0 56 VBottom 2
WINDOW 3 32 56 VTop 2
SYMATTR InstName R6
SYMATTR Value 10
SYMBOL diode -128 -176 R90
WINDOW 0 0 32 VBottom 2
WINDOW 3 32 32 VTop 2
SYMATTR InstName D3
SYMBOL res -48 224 R90
WINDOW 0 0 56 VBottom 2
WINDOW 3 32 56 VTop 2
SYMATTR InstName R7
SYMATTR Value 20
SYMBOL res 0 288 R90
WINDOW 0 0 56 VBottom 2
WINDOW 3 32 56 VTop 2
SYMATTR InstName R8
SYMATTR Value 2
SYMBOL diode -112 288 R90
WINDOW 0 0 32 VBottom 2
WINDOW 3 32 32 VTop 2
SYMATTR InstName D4
SYMBOL ind2 -816 464 R90
WINDOW 0 5 56 VBottom 2
WINDOW 3 32 56 VTop 2
SYMATTR InstName L3
SYMATTR Value 0.86nH
SYMATTR Type ind
SYMBOL cap -1232 0 R0
SYMATTR InstName C1
SYMATTR Value {Cbypass}
SYMATTR SpiceLine V={Vin} Rser={Resr} Lser={Lesl} Rpar={Rparallel}
SYMBOL ind -1712 -224 R0
SYMATTR InstName L9
SYMATTR Value 2e-6
SYMBOL ind -1712 96 R0
SYMATTR InstName L10
SYMATTR Value 2e-6
SYMBOL voltage -1696 -64 R0
WINDOW 123 0 0 Left 0
WINDOW 39 0 0 Left 0
SYMATTR InstName V1
SYMATTR Value {Vin}
SYMBOL ind2 -816 576 R90
WINDOW 0 5 56 VBottom 2
WINDOW 3 32 56 VTop 2
SYMATTR InstName L11
SYMATTR Value 20nH
SYMATTR Type ind
SYMBOL res -688 608 R0
SYMATTR InstName R9
SYMATTR Value 18
SYMBOL cap -688 736 R0
SYMATTR InstName C2
SYMATTR Value 1nF
SYMBOL voltage 320 -448 R0
WINDOW 123 0 0 Left 0
WINDOW 39 0 0 Left 0
SYMATTR InstName V4
SYMATTR Value {Tj}
SYMBOL voltage 480 -448 R0
WINDOW 123 0 0 Left 0
WINDOW 39 0 0 Left 0
SYMATTR InstName V5
SYMATTR Value {Tj}
SYMBOL voltage 640 -448 R0
WINDOW 123 0 0 Left 0
WINDOW 39 0 0 Left 0
SYMATTR InstName V6
SYMATTR Value {Tj}
SYMBOL voltage 800 -448 R0
WINDOW 123 0 0 Left 0
WINDOW 39 0 0 Left 0
SYMATTR InstName V7
SYMATTR Value {Tj}
SYMBOL GaN_LTspice_GS66508T_L1V4P1 -544 -256 R0
SYMATTR InstName U1
SYMBOL GaN_LTspice_GS66508T_L1V4P1 16 -256 R0
SYMATTR InstName U2
SYMBOL GaN_LTspice_GS66508T_L1V4P1 32 208 R0
SYMATTR InstName U3
SYMBOL GaN_LTspice_GS66508T_L1V4P1 -544 160 R0
SYMATTR InstName U4
SYMBOL ind 208 -176 R0
SYMATTR InstName L1
SYMATTR Value 100e-6
TEXT 512 320 Left 2 !.tran 0 5U 0
TEXT 504 -248 Left 2 !.option ITL1 = 500
TEXT 504 -216 Left 2 !.option ITL2 = 500
TEXT 504 -184 Left 2 !.option ITL4 = 500
TEXT 504 -152 Left 2 !.option RELTOL = 0.001
TEXT 504 -120 Left 2 !.option ABSTOL=1E-9
TEXT 504 -88 Left 2 !.option CHGTOL=1E-12
TEXT 504 -56 Left 2 !.option VNTOL=1E-6
TEXT 504 -24 Left 2 !.option GMIN=1E-15
TEXT 504 8 Left 2 !.option TRTOL=1
TEXT 504 40 Left 2 !.option noopiter
TEXT 504 72 Left 2 !.option gminsteps=0
TEXT 504 104 Left 2 !.option topologycheck=0
TEXT 928 -104 Left 2 !.param Vin=400
TEXT 928 -72 Left 2 !.param ISW=20
TEXT 928 -264 Left 2 !.param DT=1U
TEXT 928 -232 Left 2 !.param T_ON=10U
TEXT 928 -40 Left 2 !.param L_DPT=Vin*(T_ON-2*DT)/ISW
TEXT 928 -200 Left 2 !.param T_P = 21U
TEXT 504 184 Left 2 !.param L_Load=3n
TEXT 504 216 Left 2 !.param Lesl=0.7e-9 Resr=0.0134 Rparallel=2.27e9
TEXT -944 544 Left 2 !K1 L3 L11 0.044
TEXT 568 -280 Left 2 ;Solver
TEXT 968 -288 Left 2 ;GateDriver
TEXT 968 -128 Left 2 ;Operation
TEXT 568 160 Left 2 ;Parasitics
TEXT 520 288 Left 2 ;Simulation
TEXT 504 248 Left 2 !.param Cbypass 22e-9
TEXT 928 24 Left 2 !.param Tj=25
TEXT 936 -8 Left 2 !.option Temp= 25
