Version 4
SHEET 1 3400 968
WIRE 480 -160 176 -160
WIRE 608 -160 480 -160
WIRE 768 -160 608 -160
WIRE 1056 -160 768 -160
WIRE 1232 -160 1056 -160
WIRE 1584 -160 1312 -160
WIRE -560 -144 -576 -144
WIRE -304 -144 -480 -144
WIRE -576 -96 -576 -144
WIRE -576 -96 -624 -96
WIRE -304 -96 -304 -144
WIRE -240 -96 -304 -96
WIRE 176 -96 176 -160
WIRE 256 -80 240 -80
WIRE 240 -64 240 -80
WIRE 240 -64 224 -64
WIRE 2128 -64 2096 -64
WIRE 2240 -64 2208 -64
WIRE 2352 -64 2320 -64
WIRE -576 -48 -576 -96
WIRE -560 -48 -576 -48
WIRE -448 -48 -480 -48
WIRE -304 -48 -304 -96
WIRE -304 -48 -384 -48
WIRE 240 -32 224 -32
WIRE 112 -16 64 -16
WIRE 240 -16 240 -32
WIRE 480 -16 480 -160
WIRE 768 -16 768 -160
WIRE 1056 -16 1056 -160
WIRE -624 16 -624 -96
WIRE 1488 16 1376 16
WIRE 1584 16 1584 -160
WIRE 1584 16 1488 16
WIRE 2336 16 2320 16
WIRE 2352 16 2352 -64
WIRE 2352 16 2336 16
WIRE 2416 16 2352 16
WIRE 2432 16 2416 16
WIRE 2528 16 2512 16
WIRE 1376 32 1376 16
WIRE 176 128 176 0
WIRE 480 128 176 128
WIRE -624 144 -624 96
WIRE 2528 160 2528 16
WIRE 1376 176 1376 112
WIRE 1488 176 1488 16
WIRE 1584 176 1584 16
WIRE 2336 208 2336 16
WIRE 2416 208 2416 16
WIRE 256 240 240 240
WIRE -560 256 -576 256
WIRE -304 256 -480 256
WIRE 1376 272 1376 256
WIRE -576 304 -576 256
WIRE -576 304 -624 304
WIRE -304 304 -304 256
WIRE -240 304 -304 304
WIRE 176 304 176 128
WIRE 240 336 240 240
WIRE 240 336 224 336
WIRE -576 352 -576 304
WIRE -560 352 -576 352
WIRE -448 352 -480 352
WIRE -304 352 -304 304
WIRE -304 352 -384 352
WIRE 240 368 224 368
WIRE 1376 368 1376 352
WIRE 1488 368 1488 240
WIRE 1488 368 1376 368
WIRE 1584 368 1584 240
WIRE 1584 368 1488 368
WIRE 2336 368 2336 272
WIRE 2336 368 1584 368
WIRE 2416 368 2416 272
WIRE 2416 368 2336 368
WIRE 2432 368 2416 368
WIRE 2528 368 2528 240
WIRE 2528 368 2512 368
WIRE 112 384 64 384
WIRE 240 384 240 368
WIRE -624 416 -624 304
WIRE 176 480 176 400
WIRE 480 480 480 400
WIRE 480 480 176 480
WIRE 768 480 768 400
WIRE 768 480 480 480
WIRE 1056 480 1056 400
WIRE 1056 480 768 480
WIRE 1232 480 1056 480
WIRE 1584 480 1584 368
WIRE 1584 480 1312 480
WIRE 176 512 176 480
WIRE -624 544 -624 496
FLAG 240 -16 0
FLAG 240 384 0
FLAG 64 -16 GateTop
FLAG 64 384 GateBot
FLAG 176 512 0
FLAG 336 -80 0
FLAG 336 240 0
FLAG 176 128 SWnode
FLAG -624 144 SWnode
FLAG -240 -96 GateTop
FLAG -240 304 GateBot
FLAG -624 544 0
FLAG 608 -160 DCbus
FLAG 2096 -64 SWnode
SYMBOL GaN_E-HEMT_LT_GS66508T_L3V2 128 -48 R0
SYMATTR InstName U1
SYMBOL GaN_E-HEMT_LT_GS66508T_L3V2 128 352 R0
SYMATTR InstName U5
SYMBOL cap 2400 208 R0
SYMATTR InstName C1
SYMATTR Value {Cfilt}
SYMATTR SpiceLine V={0} Rser=2e-2 Lser=5e-9
SYMBOL voltage 240 -80 R270
WINDOW 0 32 56 VTop 2
WINDOW 3 -32 56 VBottom 2
SYMATTR InstName V2
SYMATTR Value {Tj}
SYMBOL voltage 240 240 R270
WINDOW 0 32 56 VTop 2
WINDOW 3 -32 56 VBottom 2
SYMATTR InstName V6
SYMATTR Value {Tj}
SYMBOL res -464 -160 R90
WINDOW 0 0 56 VBottom 2
WINDOW 3 32 56 VTop 2
SYMATTR InstName R2
SYMATTR Value {Ron}
SYMBOL res -464 -64 R90
WINDOW 0 0 56 VBottom 2
WINDOW 3 32 56 VTop 2
SYMATTR InstName R3
SYMATTR Value {Roff}
SYMBOL diode -384 -64 R90
WINDOW 0 0 32 VBottom 2
WINDOW 3 32 32 VTop 2
SYMATTR InstName D1
SYMBOL res -464 240 R90
WINDOW 0 0 56 VBottom 2
WINDOW 3 32 56 VTop 2
SYMATTR InstName R4
SYMATTR Value {Ron}
SYMBOL res -464 336 R90
WINDOW 0 0 56 VBottom 2
WINDOW 3 32 56 VTop 2
SYMATTR InstName R5
SYMATTR Value {Roff}
SYMBOL diode -384 336 R90
WINDOW 0 0 32 VBottom 2
WINDOW 3 32 32 VTop 2
SYMATTR InstName D2
SYMBOL voltage 1376 160 R0
SYMATTR InstName V11
SYMATTR Value {Vin}
SYMBOL voltage -624 0 R0
WINDOW 123 0 0 Left 0
WINDOW 39 0 0 Left 0
SYMATTR InstName V1
SYMATTR Value PULSE({Voff} {Von} {DeadTime} 2e-9 2e-9 10e-6 300e-6)
SYMBOL voltage -624 400 R0
WINDOW 123 0 0 Left 0
WINDOW 39 0 0 Left 0
SYMATTR InstName V10
SYMATTR Value PULSE({Voff} {Von} 10.2e-6 2e-9 2e-9 100n 300e-6)
SYMBOL ind 2224 -48 R270
WINDOW 0 32 56 VTop 2
WINDOW 3 5 56 VBottom 2
SYMATTR InstName L2
SYMATTR Value {Lfilt}
SYMATTR SpiceLine Rser=0.0099
SYMBOL ind 1360 16 R0
SYMATTR InstName L43
SYMATTR Value 2e-6
SYMBOL ind 1360 256 R0
SYMATTR InstName L44
SYMATTR Value 2e-6
SYMBOL cap 1568 176 R0
SYMATTR InstName C18
SYMATTR Value {Cfilt}
SYMATTR SpiceLine V={Vin} Rser=2e-2 Lser=5e-9
SYMBOL ind 2528 0 R90
WINDOW 0 5 56 VBottom 2
WINDOW 3 32 56 VTop 2
SYMATTR InstName L45
SYMATTR Value 50e-9
SYMBOL ind 2528 352 R90
WINDOW 0 5 56 VBottom 2
WINDOW 3 32 56 VTop 2
SYMATTR InstName L46
SYMATTR Value 50e-9
SYMBOL ind 2112 -48 R270
WINDOW 0 32 56 VTop 2
WINDOW 3 5 56 VBottom 2
SYMATTR InstName L47
SYMATTR Value 100e-9
SYMBOL ind 1216 -144 R270
WINDOW 0 32 56 VTop 2
WINDOW 3 5 56 VBottom 2
SYMATTR InstName L49
SYMATTR Value 100e-9
SYMBOL ind 1216 496 R270
WINDOW 0 32 56 VTop 2
WINDOW 3 5 56 VBottom 2
SYMATTR InstName L50
SYMATTR Value 100e-9
SYMBOL cap 2320 208 R0
SYMATTR InstName C19
SYMATTR Value 0.68µF
SYMATTR SpiceLine V={0} Rser=2e-2 Lser=10e-9
SYMBOL cap 1472 176 R0
SYMATTR InstName C20
SYMATTR Value 0.68µF
SYMATTR SpiceLine V={Vin} Rser=2e-2 Lser=10e-9
SYMBOL ind 2512 144 R0
SYMATTR InstName L1
SYMATTR Value 352µ
TEXT 160 -480 Left 2 !.param Ron=20 Roff=2;
TEXT 160 -384 Left 2 !.param fsw =500k
TEXT 160 -288 Left 2 !.param Lfilt = 6.8e-6
TEXT 160 -448 Left 2 !.param Cfilt=0.44e-6;
TEXT 160 -256 Left 2 !.params Von = 6 Voff = -3;
TEXT 160 -352 Left 2 !.param DeadTime = 100e-9;
TEXT 168 -664 Left 2 !.tran 0 300e-6 0
TEXT 160 -224 Left 2 !.param Tj = 25
TEXT 168 -512 Left 2 !.param Vin = 5
