Version 4
SHEET 1 1980 680
WIRE -48 -80 -208 -80
WIRE 80 -80 32 -80
WIRE 112 -80 80 -80
WIRE 304 -80 192 -80
WIRE 304 64 304 -80
WIRE -208 80 -208 -80
WIRE 384 96 352 96
WIRE 640 96 640 32
WIRE 384 128 384 96
WIRE 384 128 352 128
WIRE 112 144 0 144
WIRE 240 144 192 144
WIRE 352 144 352 128
WIRE 0 160 0 144
WIRE 256 176 224 176
WIRE 0 272 0 240
WIRE 224 272 224 176
WIRE 224 272 0 272
WIRE -208 320 -208 160
WIRE 64 320 -208 320
WIRE 304 320 304 160
WIRE 304 320 64 320
WIRE 640 320 640 176
WIRE 640 320 304 320
WIRE 64 336 64 320
FLAG 352 144 0
FLAG 64 336 0
FLAG 304 -80 Vtr
FLAG 80 -80 Vind
FLAG 640 32 Pay
SYMBOL GaN_E-HEMT_LT_GS66508B_L3V2 256 112 R0
SYMATTR InstName U1
SYMBOL ind 96 -64 R270
WINDOW 0 32 56 VTop 2
WINDOW 3 5 56 VBottom 2
SYMATTR InstName L1
SYMATTR Value 280nH
SYMATTR SpiceLine Rser=0
SYMBOL res 48 -96 R90
WINDOW 0 0 56 VBottom 2
WINDOW 3 32 56 VTop 2
SYMATTR InstName R1
SYMATTR Value 10
SYMBOL voltage -208 64 R0
WINDOW 123 0 0 Left 0
WINDOW 39 0 0 Left 0
SYMATTR InstName V1
SYMATTR Value 100
SYMBOL res 208 128 R90
WINDOW 0 0 56 VBottom 2
WINDOW 3 32 56 VTop 2
SYMATTR InstName R2
SYMATTR Value 1
SYMBOL voltage 0 144 R0
WINDOW 123 0 0 Left 0
WINDOW 39 0 0 Left 0
SYMATTR InstName V2
SYMATTR Value PULSE(0 6 0 5e-9 5e-9 0.2e-6 10e-6 1)
SYMBOL bv 640 80 R0
SYMATTR InstName B1
SYMATTR Value V = -1*(10+ 1/280e-9 * idt( (time> 210n & time<220n) * V(Vind,Vtr) ))
TEXT -240 360 Left 2 !.tran 0 0.5e-6 0 0.1e-6
